Version 4
SHEET 1 880 680
WIRE -288 -208 -320 -208
WIRE 400 -160 192 -160
WIRE -320 -144 -320 -208
WIRE 80 -48 16 -48
WIRE -320 -32 -320 -64
WIRE 80 48 80 -48
WIRE -272 96 -320 96
WIRE -160 96 -272 96
WIRE 16 96 -80 96
WIRE -320 160 -320 96
WIRE 80 192 80 144
WIRE 144 192 80 192
WIRE 80 240 80 192
WIRE -320 288 -320 240
WIRE 80 384 80 320
FLAG 80 384 0
FLAG -320 -32 0
FLAG -288 -208 Vdd
FLAG -320 288 0
FLAG 16 -48 Vdd
FLAG 144 192 Vout
FLAG -272 96 Vin
SYMBOL res -64 80 R90
WINDOW 0 0 56 VBottom 2
WINDOW 3 32 56 VTop 2
SYMATTR InstName Rb
SYMATTR Value 678
SYMBOL res 64 224 R0
SYMATTR InstName RL
SYMATTR Value 24
SYMBOL voltage -320 -160 R0
WINDOW 123 0 0 Left 0
WINDOW 39 0 0 Left 0
SYMATTR InstName V1
SYMATTR Value 12
SYMBOL voltage -320 144 R0
WINDOW 3 -484 57 Left 2
WINDOW 123 0 0 Left 0
WINDOW 39 0 0 Left 0
SYMATTR Value PULSE(0 5 500m 1n 1n 500m 1s)
SYMATTR InstName Vi
SYMBOL pnp 16 144 M180
SYMATTR InstName Q1
SYMATTR Value 2N2907
TEXT 192 -144 Left 2 !.tran 2s
TEXT 192 -176 Left 2 ;Analisis
