Version 4
SHEET 1 1376 680
WIRE 224 -320 160 -320
WIRE 320 -320 224 -320
WIRE 160 -240 160 -320
WIRE 320 -240 320 -320
WIRE 320 -144 320 -160
WIRE -496 -112 -528 -112
WIRE -480 -112 -496 -112
WIRE -384 -112 -416 -112
WIRE -368 -112 -384 -112
WIRE -272 -112 -304 -112
WIRE -256 -112 -272 -112
WIRE -16 -96 -48 -96
WIRE 32 -96 -16 -96
WIRE 160 -96 160 -160
WIRE 160 -96 96 -96
WIRE -528 -64 -528 -112
WIRE -416 -64 -416 -112
WIRE -304 -64 -304 -112
WIRE -16 0 -48 0
WIRE 32 0 -16 0
WIRE 160 0 160 -96
WIRE 160 0 96 0
WIRE 192 0 160 0
WIRE 208 0 192 0
WIRE -528 32 -528 16
WIRE -416 32 -416 16
WIRE -304 32 -304 16
WIRE -16 96 -48 96
WIRE 32 96 -16 96
WIRE 160 96 160 0
WIRE 160 96 96 96
FLAG -304 32 0
FLAG -416 32 0
FLAG -528 32 0
FLAG -496 -112 a
FLAG -16 -96 a
FLAG -384 -112 b
FLAG -16 0 b
FLAG -272 -112 c
FLAG -16 96 c
FLAG 192 0 y
FLAG 320 -144 0
FLAG 224 -320 cc
SYMBOL diode 96 -112 R90
WINDOW 0 0 32 VBottom 2
WINDOW 3 32 32 VTop 2
SYMATTR InstName D1
SYMATTR Value DIdeal
SYMBOL res 144 -256 R0
SYMATTR InstName R1
SYMATTR Value {RL}
SYMBOL diode 96 -16 R90
WINDOW 0 0 32 VBottom 2
WINDOW 3 32 32 VTop 2
SYMATTR InstName D2
SYMATTR Value DIdeal
SYMBOL diode 96 80 R90
WINDOW 0 0 32 VBottom 2
WINDOW 3 32 32 VTop 2
SYMATTR InstName D3
SYMATTR Value DIdeal
SYMBOL voltage -528 -80 R0
SYMATTR InstName V1
SYMATTR Value {Va}
SYMBOL voltage -416 -80 R0
SYMATTR InstName V2
SYMATTR Value {Vb}
SYMBOL voltage -304 -80 R0
SYMATTR InstName V3
SYMATTR Value {Vc}
SYMBOL voltage 320 -256 R0
SYMATTR InstName V4
SYMATTR Value 5V
TEXT -16 248 Left 1 !.op
TEXT -16 200 Left 1 !.model DIdeal D(Ron=0.0001 Roff=100G Vfwd=0)
TEXT 376 -104 Left 1 ;Modelo Ideal:\nV(D1) = 0 V\nV(D2) = 0 V\nV(D3) = 0 V
TEXT -16 224 Left 1 !.param Va=3V Vb=2V Vc=1V RL=1k
